Test_Network(Copy to Matpower)/Modified Network/case162_DCOPF.m
function mpc = case162_DCOPF
%CASE162_DCOPF

%% MATPOWER Case Format : Version 2
mpc.version = '2';

%%-----  Power Flow Data  -----%%
%% system MVA base
mpc.baseMVA = 100;

%% bus data
%	bus_i	type	Pd	Qd	Gs	Bs	area	Vm	Va	baseKV	zone	Vmax	Vmin
mpc.bus = [
	1	1	0	0	0	-100	1	1	0	345	9	1.06	0.94;
	2	1	0	0	0	0	1	1	0	345	9	1.06	0.94;
	3	1	370	96.9	0	0	1	1	0	161	12	1.06	0.94;
	4	1	0	0	0	0	1	1	0	345	3	1.06	0.94;
	5	1	0	0	0	-50	1	1	0	345	8	1.06	0.94;
	6	3	0	0	0	0	1	1	0	22	9	1.06	0.94;
	7	1	0	0	0	0	1	1	0	345	9	1.06	0.94;
	8	1	398	0	0	0	1	1	0	115	12	1.06	0.94;
	9	1	0	0	0	0	1	1	0	345	8	1.06	0.94;
	10	1	226	0	0	0	1	1	0	230	12	1.06	0.94;
	11	1	0	0	0	0	1	1	0	230	10	1.06	0.94;
	12	1	193	0	0	0	1	1	0	115	12	1.06	0.94;
	13	1	204	0	0	0	1	1	0	345	12	1.06	0.94;
	14	1	381	0	0	0	1	1	0	161	12	1.06	0.94;
	15	1	-80	0	0	0	1	1	0	230	12	1.06	0.94;
	16	1	-54.2	0	0	0	1	1	0	161	12	1.06	0.94;
	17	1	-116.5	0	0	0	1	1	0	161	12	1.06	0.94;
	18	1	34.4	11.67	0	0	1	1	0	161	6	1.06	0.94;
	19	1	64.4	0	0	0	1	1	0	161	12	1.06	0.94;
	20	1	37.9	12.5	0	0	1	1	0	69	10	1.06	0.94;
	21	1	-69.8	0	0	0	1	1	0	161	12	1.06	0.94;
	22	1	17.39	5.27	0	0	1	1	0	161	6	1.06	0.94;
	23	1	63.5	0	0	0	1	1	0	161	12	1.06	0.94;
	24	1	0	0	0	0	1	1	0	161	6	1.06	0.94;
	25	1	0	0	0	-50	1	1	0	345	6	1.06	0.94;
	26	1	0	0	0	-50	1	1	0	345	1	1.06	0.94;
	27	1	324	57.9	0	0	1	1	0	345	12	1.06	0.94;
	28	1	38.47	13.17	0	0	1	1	0	161	6	1.06	0.94;
	29	1	28.31	9.03	0	0	1	1	0	161	6	1.06	0.94;
	30	1	101.2	32.52	0	15	1	1	0	161	6	1.06	0.94;
	31	1	72.5	0	0	0	1	1	0	161	12	1.06	0.94;
	32	1	52.7	15.06	0	20	1	1	0	161	6	1.06	0.94;
	33	1	45.17	15.06	0	20	1	1	0	161	6	1.06	0.94;
	34	1	14.18	5.25	0	3.2	1	1	0	161	1	1.06	0.94;
	35	1	54.48	14.63	0	5	1	1	0	161	1	1.06	0.94;
	36	1	31.96	8.68	0	3	1	1	0	161	2	1.06	0.94;
	37	1	0	0	0	0	1	1	0	345	11	1.06	0.94;
	38	1	14.76	4.08	0	1.5	1	1	0	161	2	1.06	0.94;
	39	1	0	0	0	0	1	1	0	345	6	1.06	0.94;
	40	1	52.88	17.6	0	0	1	1	0	161	1	1.06	0.94;
	41	1	39.2	12.8	0	0	1	1	0	161	1	1.06	0.94;
	42	1	0	0	0	0	1	1	0	345	2	1.06	0.94;
	43	1	41.5	0	0	0	1	1	0	161	12	1.06	0.94;
	44	1	16.32	3.71	0	0	1	1	0	161	2	1.06	0.94;
	45	1	20.02	5.41	0	1.9	1	1	0	161	2	1.06	0.94;
	46	1	65.31	22.3	0	26.2	1	1	0	161	10	1.06	0.94;
	47	1	4.82	1.56	0	0	1	1	0	161	2	1.06	0.94;
	48	1	33.76	22.86	0	0	1	1	0	161	10	1.06	0.94;
	49	1	6.82	1.78	0	0	1	1	0	161	2	1.06	0.94;
	50	1	99.7	0	0	0	1	1	0	161	12	1.06	0.94;
	51	1	0	0	0	0	1	1	0	161	3	1.06	0.94;
	52	1	218.2	42.8	0	0	1	1	0	161	3	1.06	0.94;
	53	1	0	0	0	0	1	1	0	161	10	1.06	0.94;
	54	1	70.34	29.57	0	0	1	1	0	161	10	1.06	0.94;
	55	1	0	0	0	0	1	1	0	161	1	1.06	0.94;
	56	1	25.29	7.26	0	3.2	1	1	0	161	7	1.06	0.94;
	57	1	48.48	15.61	0	0	1	1	0	161	1	1.06	0.94;
	58	1	0	0	0	0	1	1	0	230	10	1.06	0.94;
	59	1	84.43	27.05	0	0	1	1	0	230	10	1.06	0.94;
	60	1	244	0	0	0	1	1	0	115	12	1.06	0.94;
	61	1	0	0	0	0	1	1	0	230	10	1.06	0.94;
	62	1	-865.6	0	0	0	1	1	0	230	12	1.06	0.94;
	63	1	59.1	0	0	0	1	1	0	230	12	1.06	0.94;
	64	1	0	0	0	0	1	1	0	345	10	1.06	0.94;
	65	1	-26.3	0	0	0	1	1	0	345	12	1.06	0.94;
	66	1	0	0	0	-50	1	1	0	345	10	1.06	0.94;
	67	1	22.54	7.03	0	6	1	1	0	161	7	1.06	0.94;
	68	1	40.42	12.68	0	12	1	1	0	161	7	1.06	0.94;
	69	1	0	0	0	0	1	1	0	161	1	1.06	0.94;
	70	1	0	0	0	0	1	1	0	161	1	1.06	0.94;
	71	1	29.87	11.93	0	12	1	1	0	161	1	1.06	0.94;
	72	1	427	0	0	0	1	1	0	161	12	1.06	0.94;
	73	2	0	0	0	0	1	1	0	20	1	1.06	0.94;
	74	1	0	0	0	0	1	1	0	345	5	1.06	0.94;
	75	1	0	0	0	-50	1	1	0	345	8	1.06	0.94;
	76	2	0	0	0	0	1	1	0	24	1	1.06	0.94;
	77	1	26.41	8.78	0	4.7	1	1	0	161	1	1.06	0.94;
	78	1	79.12	0	0	0	1	1	0	161	5	1.06	0.94;
	79	1	0	0	0	0	1	1	0	161	5	1.06	0.94;
	80	1	15.76	5.25	0	2.8	1	1	0	161	1	1.06	0.94;
	81	1	50.88	16.8	0	22.1	1	1	0	69	1	1.06	0.94;
	82	1	62.28	20.26	0	10.4	1	1	0	161	1	1.06	0.94;
	83	1	0	0	0	0	1	1	0	161	1	1.06	0.94;
	84	1	37.9	9.49	0	2.6	1	1	0	161	2	1.06	0.94;
	85	1	40.52	11.26	0	12	1	1	0	161	1	1.06	0.94;
	86	1	50.73	13.35	0	12	1	1	0	161	2	1.06	0.94;
	87	1	16.91	4.23	0	0	1	1	0	115	2	1.06	0.94;
	88	1	60.6	4.44	0	0	1	1	0	69	4	1.06	0.94;
	89	1	0	0	0	0	1	1	0	115	2	1.06	0.94;
	90	1	50.21	16.76	0	10	1	1	0	115	2	1.06	0.94;
	91	1	51.24	12.83	0	0	1	1	0	161	2	1.06	0.94;
	92	1	36.12	9.05	0	0	1	1	0	161	2	1.06	0.94;
	93	1	103.8	34.56	0	0	1	1	0	161	2	1.06	0.94;
	94	1	164	6.49	0	0	1	1	0	161	5	1.06	0.94;
	95	1	117.2	39.01	0	0	1	1	0	115	2	1.06	0.94;
	96	1	119.2	0	0	0	1	1	0	115	2	1.06	0.94;
	97	1	22.84	5.71	0	0	1	1	0	115	2	1.06	0.94;
	98	1	151.1	50.35	0	0	1	1	0	115	2	1.06	0.94;
	99	2	0	0	0	0	1	1	0	18	2	1.06	0.94;
	100	1	23.21	6.9	0	3	1	1	0	115	2	1.06	0.94;
	101	2	0	0	0	0	1	1	0	14	2	1.06	0.94;
	102	1	16.54	4.08	0	0	1	1	0	161	2	1.06	0.94;
	103	1	322	0	0	0	1	1	0	161	12	1.06	0.94;
	104	1	31.52	10.46	0	5.6	1	1	0	115	2	1.06	0.94;
	105	1	24.84	6.23	0	1.7	1	1	0	115	2	1.06	0.94;
	106	1	0	0	0	0	1	1	0	161	4	1.06	0.94;
	107	1	35.41	5.41	0	0	1	1	0	161	4	1.06	0.94;
	108	2	0	0	0	0	1	1	0	22	2	1.06	0.94;
	109	1	0	0	0	0	1	1	0	345	5	1.06	0.94;
	110	1	0	0	0	0	1	1	0	161	3	1.06	0.94;
	111	1	65.41	16.72	0	0	1	1	0	161	3	1.06	0.94;
	112	1	0	0	0	-50	1	1	0	345	3	1.06	0.94;
	113	1	32.7	0	0	0	1	1	0	161	12	1.06	0.94;
	114	2	0	0	0	0	1	1	0	14	3	1.06	0.94;
	115	1	17.32	3.34	0	0	1	1	0	161	3	1.06	0.94;
	116	1	56.08	11.2	0	0	1	1	0	161	3	1.06	0.94;
	117	1	101.9	20.06	0	0	1	1	0	161	3	1.06	0.94;
	118	2	0	0	0	0	1	1	0	14	3	1.06	0.94;
	119	1	0	0	0	0	1	1	0	345	3	1.06	0.94;
	120	1	0	0	0	0	1	1	0	345	8	1.06	0.94;
	121	2	0	0	0	0	1	1	0	24	3	1.06	0.94;
	122	1	47.28	9.36	0	0	1	1	0	161	3	1.06	0.94;
	123	1	165	0	0	0	1	1	0	161	12	1.06	0.94;
	124	1	-571	90.9	0	0	1	1	0	345	12	1.06	0.94;
	125	2	2000	0	0	0	1	1	0	345	12	1.06	0.94;
	126	1	-467	0	0	0	1	1	0	345	12	1.06	0.94;
	127	1	-52.6	0	0	0	1	1	0	345	12	1.06	0.94;
	128	1	0	0	0	0	1	1	0	345	8	1.06	0.94;
	129	1	0	0	0	0	1	1	0	345	8	1.06	0.94;
	130	2	0	0	0	0	1	1	0	22	8	1.06	0.94;
	131	2	0	0	0	0	1	1	0	18	8	1.06	0.94;
	132	1	159	0	0	0	1	1	0	161	12	1.06	0.94;
	133	1	30.1	6.02	0	0	1	1	0	69	3	1.06	0.94;
	134	1	17.46	3.34	0	0	1	1	0	161	3	1.06	0.94;
	135	1	20.06	4.01	0	0	1	1	0	69	3	1.06	0.94;
	136	1	20.06	4.01	0	0	1	1	0	69	3	1.06	0.94;
	137	1	20.06	4.01	0	0	1	1	0	69	3	1.06	0.94;
	138	1	0	0	0	0	1	1	0	69	3	1.06	0.94;
	139	1	10.1	2.01	0	0	1	1	0	69	3	1.06	0.94;
	140	1	13.58	2.68	0	0	1	1	0	69	3	1.06	0.94;
	141	1	0	0	0	0	1	1	0	161	3	1.06	0.94;
	142	1	27.09	5.35	0	0	1	1	0	69	3	1.06	0.94;
	143	1	21.07	4.01	0	0	1	1	0	69	3	1.06	0.94;
	144	1	12.37	2.01	0	0	1	1	0	69	3	1.06	0.94;
	145	1	10.83	2.21	0	0	1	1	0	69	3	1.06	0.94;
	146	1	21.33	4.01	0	0	1	1	0	69	3	1.06	0.94;
	147	1	216.4	42.8	0	0	1	1	0	161	3	1.06	0.94;
	148	1	120	24	0	0	1	1	0	69	3	1.06	0.94;
	149	1	0	0	0	0	1	1	0	161	1	1.06	0.94;
	150	1	4.8	1.6	0	0	1	1	0	161	1	1.06	0.94;
	151	1	24	8	0	0	1	1	0	161	1	1.06	0.94;
	152	1	6	0	0	0	1	1	0	161	12	1.06	0.94;
	153	1	4	1.6	0	0	1	1	0	69	1	1.06	0.94;
	154	1	28	9.6	0	6	1	1	0	69	1	1.06	0.94;
	155	1	12	4	0	0	1	1	0	69	1	1.06	0.94;
	156	1	8	2.4	0	0	1	1	0	69	1	1.06	0.94;
	157	1	32	10.4	0	0	1	1	0	69	1	1.06	0.94;
	158	1	16	5.6	0	3	1	1	0	69	1	1.06	0.94;
	159	1	8	2.4	0	0	1	1	0	69	1	1.06	0.94;
	160	1	14.4	4.8	0	3	1	1	0	69	1	1.06	0.94;
	161	1	32	10.4	0	0	1	1	0	161	1	1.06	0.94;
	162	1	20	6.4	0	0	1	1	0	161	1	1.06	0.94;
];

%% generator data
%	bus	Pg	Qg	Qmax	Qmin	Vg	mBase	status	Pmax	Pmin	Pc1	Pc2	Qc1min	Qc1max	Qc2min	Qc2max	ramp_agc	ramp_10	ramp_30	ramp_q	apf
mpc.gen = [
	6	573.5	100	400	-200	1	100	1	1147	0	0	0	0	0	0	0	0	0	0	0	0;
	73	225.5	77	226	-72	1	100	1	451	0	0	0	0	0	0	0	0	0	0	0	0;
	76	563.5	197	564	-170	1	100	1	1127	0	0	0	0	0	0	0	0	0	0	0	0;
	99	183	7.5	75.6	-60.6	1	100	1	366	0	0	0	0	0	0	0	0	0	0	0	0;
	101	55	7.1	38.6	-24.4	1	100	1	110	0	0	0	0	0	0	0	0	0	0	0	0;
	108	559.5	0	560	-560	1	100	1	1119	0	0	0	0	0	0	0	0	0	0	0	0;
	114	154	4	33	-25	1	100	1	308	0	0	0	0	0	0	0	0	0	0	0	0;
	118	227.5	28	100	-44	1	100	1	455	0	0	0	0	0	0	0	0	0	0	0	0;
	121	350	65	250	-120	1	100	1	700	0	0	0	0	0	0	0	0	0	0	0	0;
	125	1263	82	1263	-1099	1	100	1	2526	0	0	0	0	0	0	0	0	0	0	0	0;
	130	796.5	72	288	-144	1	100	1	1593	0	0	0	0	0	0	0	0	0	0	0	0;
	131	565	27.5	320	-265	1	100	1	1130	0	0	0	0	0	0	0	0	0	0	0	0;
];

%% branch data
%	fbus	tbus	r	x	b	rateA	rateB	rateC	ratio	angle	status	angmin	angmax
mpc.branch = [
	1	2	0.0035	0.0321	0.5438	613	613	613	0	0	1	-360	360;
	1	3	0.0034	0.0326	0.7224	895	895	895	1	0	1	-360	360;
	1	4	0.0064	0.0621	0.987	470	470	470	0	0	1	-360	360;
	1	5	0.0011	0.0119	0.2012	663	663	663	0	0	1	-360	360;
	1	6	0	0.0133	0	900	2206	2206	1.0519	0	1	-360	360;
	2	7	0.0014	0.0125	0.2122	605	605	605	0	0	1	-360	360;
	2	13	0.0046	0.0417	0.7058	610	610	610	0	0	1	-360	360;
	3	14	0.2361	1.0122	0	29	29	29	0	0	1	-360	360;
	3	50	0.0389	0.1699	0	169	169	169	0	0	1	-360	360;
	3	103	0.1074	1.8023	0	17	17	17	0	0	1	-360	360;
	3	123	0.2883	1.6719	0	18	18	18	0	0	1	-360	360;
	3	124	0.014	0.6483	0	46	46	46	1	0	1	-360	360;
	3	125	0.0084	0.1139	0	257	257	257	1	0	1	-360	360;
	4	112	0.0059	0.0568	0.925	514	514	514	0	0	1	-360	360;
	4	115	0	0.0185	0	500	1586	1586	1	0	1	-360	360;
	4	119	0.0014	0.0119	0.205	591	591	591	0	0	1	-360	360;
	5	120	0.0022	0.0224	0.3792	644	644	644	0	0	1	-360	360;
	5	129	0.0022	0.0268	0.4612	702	702	702	0	0	1	-360	360;
	5	131	0	0.0127	0	710	2310	2310	1.0249	0	1	-360	360;
	7	8	0.0004	0.0189	0	672	1552	1552	0.9751	0	1	-360	360;
	7	9	0.0017	0.0169	0.2872	637	637	637	0	0	1	-360	360;
	8	10	0.4591	1.0703	0	26	26	26	1	0	1	-360	360;
	8	12	0.0106	0.0574	0	159	159	159	0	0	1	-360	360;
	8	13	0.1274	0.4784	0	60	60	60	1	0	1	-360	360;
	8	14	0.0473	0.3956	0	74	74	74	1	0	1	-360	360;
	8	15	0.5035	1.7433	0	17	17	17	1	0	1	-360	360;
	8	132	0.0252	0.288	0	102	102	102	1	0	1	-360	360;
	9	75	0.0013	0.015	0.2682	684	684	684	0	0	1	-360	360;
	10	11	0.0051	0.037	0.0716	366	366	366	0	0	1	-360	360;
	10	13	0.1299	0.622	0	47	47	47	1	0	1	-360	360;
	10	15	0.1275	0.7033	0	42	42	42	0	0	1	-360	360;
	10	60	0.2525	1.2242	0	24	24	24	1	0	1	-360	360;
	11	15	0.0285	0.1793	0.3484	162	162	162	0	0	1	-360	360;
	11	46	0.0142	0.1225	0.1876	238	238	238	1	0	1	-360	360;
	11	58	0.017	0.107	0.2074	271	271	271	0	0	1	-360	360;
	11	59	0.0071	0.0471	0.0852	350	350	350	0	0	1	-360	360;
	12	2	0.0008	0.0377	0	336	778	778	1.0252	0	1	-360	360;
	12	13	0.1038	0.3137	0	89	89	89	1	0	1	-360	360;
	12	14	0.1598	0.6415	0	45	45	45	1	0	1	-360	360;
	12	132	0.4486	1.5773	0	18	18	18	1	0	1	-360	360;
	13	15	0.044	0.3227	0	91	91	91	1	0	1	-360	360;
	13	62	0.0098	0.1221	0	240	240	240	1	0	1	-360	360;
	14	72	0.0107	0.0828	0	264	264	264	0	0	1	-360	360;
	14	113	0.0063	0.0382	0	235	235	235	0	0	1	-360	360;
	14	132	0.0057	0.0374	0	244	244	244	0	0	1	-360	360;
	15	58	0.0115	0.0732	0.142	344	344	344	0	0	1	-360	360;
	15	60	0.3907	1.6753	0	18	18	18	1	0	1	-360	360;
	15	62	0.0084	0.0588	0	359	359	359	0	0	1	-360	360;
	15	63	0.1704	1.4555	0	21	21	21	0	0	1	-360	360;
	16	17	0.6017	1.4373	0	19	19	19	0	0	1	-360	360;
	16	18	0.0297	0.107	0.0546	184	184	184	0	0	1	-360	360;
	16	27	0.1574	0.8871	0	33	33	33	1	0	1	-360	360;
	16	126	0.1053	0.5132	0	56	56	56	1	0	1	-360	360;
	16	127	0.0958	0.5276	0	55	55	55	1	0	1	-360	360;
	17	18	0.0213	0.1013	0.0642	209	209	209	0	0	1	-360	360;
	17	19	0.2314	0.7678	0	37	37	37	0	0	1	-360	360;
	17	21	0.0471	0.2665	0	109	109	109	0	0	1	-360	360;
	17	127	0.0287	0.2637	0	111	111	111	1	0	1	-360	360;
	18	30	0.0207	0.1088	0.052	220	220	220	0	0	1	-360	360;
	18	32	0.0234	0.122	0.0582	219	219	219	0	0	1	-360	360;
	18	37	0	0.0456	0	225	644	644	1.1193	0	1	-360	360;
	19	21	0.3867	1.9005	0	16	16	16	0	0	1	-360	360;
	19	38	0.0239	0.125	0.0596	219	219	219	0	0	1	-360	360;
	19	43	0.0603	0.2572	0	112	112	112	0	0	1	-360	360;
	19	127	0.1074	0.6809	0	43	43	43	1	0	1	-360	360;
	20	53	0	0.114	0	75	258	258	1	0	1	-360	360;
	20	157	0.0113	0.0279	0.0004	44	66	66	0	0	1	-360	360;
	21	22	0.0312	0.1629	0.0778	177	177	177	0	0	1	-360	360;
	21	127	0.0105	0.6414	0	46	46	46	1	0	1	-360	360;
	22	38	0.014	0.054	0.025	190	190	190	0	0	1	-360	360;
	22	39	0	0.0493	0	225	595	595	1.1081	0	1	-360	360;
	22	40	0.0188	0.0717	0.0328	189	189	189	0	0	1	-360	360;
	22	41	0.0172	0.085	0.0404	213	213	213	0	0	1	-360	360;
	23	24	0.0174	0.0511	0.023	167	167	167	0	0	1	-360	360;
	23	60	0.066	0.3093	0	93	93	93	1	0	1	-360	360;
	24	25	0	0.034	0	225	863	863	1.0217	0	1	-360	360;
	24	28	0.0249	0.0725	0.0202	166	166	166	0	0	1	-360	360;
	24	45	0.0137	0.0725	0.034	220	220	220	0	0	1	-360	360;
	25	26	0.0059	0.0583	0.9302	501	501	501	0	0	1	-360	360;
	25	27	0.0044	0.041	0.8384	618	618	618	0	0	1	-360	360;
	26	74	0.0063	0.0607	0.93	481	481	481	0	0	1	-360	360;
	26	75	0.003	0.0322	0.5038	661	661	661	0	0	1	-360	360;
	26	76	0	0.0082	0	1250	3578	3578	1.04	0	1	-360	360;
	27	31	0.0101	0.1273	0	230	230	230	1	0	1	-360	360;
	27	62	0.0173	0.581	0	51	51	51	1	0	1	-360	360;
	27	65	0.0105	0.2764	0	107	107	107	0	0	1	-360	360;
	27	125	0.035	1.6845	0	18	18	18	0	0	1	-360	360;
	27	126	0.0022	0.0225	0	646	646	646	0	0	1	-360	360;
	27	127	0.1506	1.4355	0	21	21	21	0	0	1	-360	360;
	28	29	0.024	0.0965	0.0444	193	193	193	0	0	1	-360	360;
	29	30	0.038	0.15	0.0696	177	190	190	0	0	1	-360	360;
	29	31	0.0206	0.0833	0.0384	194	194	194	0	0	1	-360	360;
	30	32	0.0249	0.1005	0.0458	194	194	194	0	0	1	-360	360;
	32	33	0.0114	0.0448	0.0208	191	191	191	0	0	1	-360	360;
	33	34	0.028	0.114	0.052	180	195	195	0	0	1	-360	360;
	33	35	0.0216	0.107	0.051	214	214	214	0	0	1	-360	360;
	33	36	0.0102	0.0536	0.0254	220	220	220	0	0	1	-360	360;
	34	40	0.0397	0.1517	0.069	188	188	188	0	0	1	-360	360;
	34	77	0.0235	0.0896	0.0408	189	189	189	0	0	1	-360	360;
	35	40	0.0271	0.1341	0.0638	179	213	213	0	0	1	-360	360;
	36	67	0.0176	0.0924	0.044	220	220	220	0	0	1	-360	360;
	37	39	0.0039	0.0379	0.67	630	630	630	0	0	1	-360	360;
	37	126	0.004	0.0381	0.67	624	624	624	0	0	1	-360	360;
	37	127	0.004	0.0403	0.6832	641	641	641	0	0	1	-360	360;
	39	42	0.002	0.0186	0.32	617	617	617	0	0	1	-360	360;
	40	81	0.03	0.345	0.0038	81	85	85	1	0	1	-360	360;
	40	82	0.004	0.019	0.0108	209	209	209	0	0	1	-360	360;
	41	81	0.037	0.372	0.0058	79	79	79	1	0	1	-360	360;
	41	83	0.0052	0.0256	0.0124	213	213	213	0	0	1	-360	360;
	41	84	0.0057	0.058	0.0292	301	301	301	0	0	1	-360	360;
	42	109	0.0019	0.0196	0.333	648	648	648	0	0	1	-360	360;
	43	44	0.0188	0.0751	0.0348	193	193	193	0	0	1	-360	360;
	43	103	0.0324	0.1702	0	170	170	170	0	0	1	-360	360;
	43	124	0.0293	0.1766	0	164	164	164	1	0	1	-360	360;
	43	125	0.1449	0.6509	0	44	44	44	1	0	1	-360	360;
	44	102	0.013	0.05	0.0236	180	189	189	0	0	1	-360	360;
	44	103	0.0127	0.051	0.0244	180	193	193	0	0	1	-360	360;
	45	54	0.0108	0.057	0.0272	220	220	220	0	0	1	-360	360;
	46	47	0.031	0.1378	0.0622	177	203	203	0	0	1	-360	360;
	47	48	0.0251	0.1114	0.0502	177	203	203	0	0	1	-360	360;
	47	49	0.003	0.012	0.0054	193	193	193	0	0	1	-360	360;
	48	50	0.0336	0.166	0.078	174	174	174	0	0	1	-360	360;
	48	51	0.042	0.13	0.057	171	171	171	0	0	1	-360	360;
	48	52	0.054	0.168	0.074	167	167	167	0	0	1	-360	360;
	49	87	0.014	0.068	0.0266	423	423	423	1	0	1	-360	360;
	50	51	0.03	0.09	0.041	168	168	168	0	0	1	-360	360;
	50	123	0.4071	1.8543	0	16	16	16	0	0	1	-360	360;
	50	125	0.1337	0.6031	0	48	48	48	1	0	1	-360	360;
	51	141	0.0323	0.1	0.0442	171	171	171	0	0	1	-360	360;
	52	79	0.0623	0.2126	0.094	133	133	133	0	0	1	-360	360;
	52	106	0.0231	0.0717	0.0314	171	171	171	0	0	1	-360	360;
	52	116	0.006	0.0487	0.0256	270	270	270	0	0	1	-360	360;
	52	117	0.0117	0.0493	0.023	198	198	198	0	0	1	-360	360;
	52	118	0	0.052	0	200	565	565	1.0429	0	1	-360	360;
	53	11	0.0005	0.02	0	375	1467	1467	1	0	1	-360	360;
	53	54	0.0275	0.1961	0.0956	149	149	149	0	0	1	-360	360;
	53	55	0.0005	0.0026	0.0022	219	219	219	0	0	1	-360	360;
	54	56	0.0174	0.091	0.043	219	219	219	0	0	1	-360	360;
	54	57	0.025	0.1237	0.0588	213	213	213	0	0	1	-360	360;
	55	57	0.0462	0.1763	0.0802	161	161	161	0	0	1	-360	360;
	55	149	0.0153	0.0671	0.0312	202	202	202	0	0	1	-360	360;
	55	162	0.004	0.0189	0.0098	209	209	209	0	0	1	-360	360;
	56	67	0.017	0.0894	0.0424	220	220	220	0	0	1	-360	360;
	57	80	0.0272	0.1037	0.0472	180	189	189	0	0	1	-360	360;
	58	61	0.0133	0.1018	0.1842	276	286	286	0	0	1	-360	360;
	59	61	0.0106	0.0706	0.121	351	351	351	0	0	1	-360	360;
	60	61	0.0027	0.0653	-0.0022	100	449	449	1.0252	0	1	-360	360;
	60	61	0.002	0.0393	0	200	746	746	1.0252	0	1	-360	360;
	60	62	0.3674	0.964	0	29	29	29	1	0	1	-360	360;
	60	65	0.1041	0.4144	0	69	69	69	1	0	1	-360	360;
	60	126	0.5367	1.8295	0	16	16	16	1	0	1	-360	360;
	61	62	0.0296	0.2275	0.3996	128	128	128	0	0	1	-360	360;
	61	63	0.0043	0.0422	0.0764	345	422	422	0	0	1	-360	360;
	62	63	0.0158	0.1702	0	172	172	172	0	0	1	-360	360;
	62	65	0.004	0.074	0	396	396	396	1	0	1	-360	360;
	62	126	0.0044	0.2969	0	99	99	99	1	0	1	-360	360;
	63	65	0.2409	1.96	0	15	15	15	1	0	1	-360	360;
	64	65	0.005	0.0571	0.9098	512	512	512	0	0	1	-360	360;
	64	66	0.0033	0.0381	0.6066	684	684	684	0	0	1	-360	360;
	65	126	0.0031	0.1536	0	191	191	191	0	0	1	-360	360;
	66	11	0	0.0118	0	500	2486	2486	1	0	1	-360	360;
	67	68	0.0193	0.1013	0.0482	220	220	220	0	0	1	-360	360;
	68	69	0.0068	0.0353	0.0168	218	218	218	0	0	1	-360	360;
	69	77	0.0098	0.0374	0.017	189	189	189	0	0	1	-360	360;
	69	78	0.0114	0.0434	0.0196	180	188	188	0	0	1	-360	360;
	69	79	0.0052	0.0433	0.022	273	273	273	0	0	1	-360	360;
	70	73	0	0.0197	0	495	1489	1489	1.0398	0	1	-360	360;
	70	149	0.0002	0.0018	0.001	284	284	284	0	0	1	-360	360;
	70	149	0.0002	0.0018	0.001	284	284	284	0	0	1	-360	360;
	71	85	0.0304	0.1506	0.0716	191	191	191	0	0	1	-360	360;
	71	150	0.0196	0.097	0.0462	213	213	213	0	0	1	-360	360;
	72	113	0.0022	0.013	0	232	232	232	0	0	1	-360	360;
	72	132	0.0028	0.0168	0	234	234	234	0	0	1	-360	360;
	72	152	0.0385	0.18	0	160	160	160	0	0	1	-360	360;
	74	119	0.0031	0.031	0.4822	639	639	639	0	0	1	-360	360;
	75	128	0.0008	0.0087	0.166	665	665	665	0	0	1	-360	360;
	75	130	0.0004	0.0242	0	578	1212	1212	1.0249	0	1	-360	360;
	78	79	0.0051	0.0336	0.0182	245	245	245	0	0	1	-360	360;
	78	80	0.0244	0.093	0.0422	180	189	189	0	0	1	-360	360;
	79	74	0	0.018	0	500	1630	1630	1.0248	0	1	-360	360;
	82	83	0.0053	0.0249	0.013	208	208	208	0	0	1	-360	360;
	84	93	0.0125	0.0826	0.0414	245	245	245	0	0	1	-360	360;
	85	86	0.0211	0.1046	0.0498	214	214	214	0	0	1	-360	360;
	86	87	0.028	0.112	0.0538	255	255	255	1	0	1	-360	360;
	86	88	0.044	0.228	0.109	127	127	127	1	0	1	-360	360;
	88	96	0.074	0.25	0.0142	48	113	113	1	0	1	-360	360;
	88	106	0.0079	0.0468	0.0232	173	619	619	1	0	1	-360	360;
	89	86	0	0.057	0	90	515	515	1.0252	0	1	-360	360;
	89	90	0.069	0.134	0.014	69	98	98	0	0	1	-360	360;
	90	96	0.1837	0.359	0.037	73	73	73	0	0	1	-360	360;
	91	92	0.0156	0.0819	0.0376	220	220	220	0	0	1	-360	360;
	91	93	0.0143	0.0895	0.045	239	239	239	0	0	1	-360	360;
	91	94	0.0145	0.0957	0.048	245	245	245	0	0	1	-360	360;
	92	102	0.015	0.061	0.0292	194	194	194	0	0	1	-360	360;
	93	42	0	0.026	0	400	1129	1129	1.0248	0	1	-360	360;
	93	108	0	0.0154	0	600	1905	1905	1.0503	0	1	-360	360;
	94	103	0.0227	0.1333	0.066	217	217	217	0	0	1	-360	360;
	94	107	0.0613	0.1891	0.0836	148	148	148	0	0	1	-360	360;
	94	109	0	0.035	0	300	839	839	1.0248	0	1	-360	360;
	95	91	0.0054	0.0458	-0.0036	250	637	637	1.02	0	1	-360	360;
	95	96	0.087	0.212	0.086	109	109	109	0	0	1	-360	360;
	95	97	0.1289	0.2809	0.0334	58	95	95	0	0	1	-360	360;
	95	98	0.0071	0.043	0.0224	168	168	168	0	0	1	-360	360;
	95	99	0	0.0685	0	150	429	429	1.0296	0	1	-360	360;
	96	100	0.069	0.161	0.0186	69	107	107	0	0	1	-360	360;
	96	101	0	0.1031	0	96	285	285	1.0296	0	1	-360	360;
	97	44	0.0051	0.1007	-0.0025	84	291	291	1.0252	0	1	-360	360;
	98	93	0.0006	0.0214	-0.0341	504	1371	1371	1.0252	0	1	-360	360;
	98	105	0.1485	0.293	0.031	69	90	90	0	0	1	-360	360;
	100	104	0.062	0.145	0.0166	69	107	107	0	0	1	-360	360;
	103	123	0.182	0.751	0	38	38	38	0	0	1	-360	360;
	103	124	0.0002	0.0167	0	1757	1757	1757	1	0	1	-360	360;
	103	125	0.0279	0.1972	0	148	148	148	1	0	1	-360	360;
	104	34	0.008	0.0637	-0.0033	106	457	457	1	0	1	-360	360;
	105	38	0	0.116	0	45	253	253	1.0252	0	1	-360	360;
	106	107	0.0196	0.0611	0.0268	171	171	171	0	0	1	-360	360;
	107	122	0.013	0.0621	0.0296	210	210	210	0	0	1	-360	360;
	109	119	0.006	0.0577	0.929	506	506	506	0	0	1	-360	360;
	109	124	0.002	0.0222	0.3782	671	671	671	0	0	1	-360	360;
	109	125	0.007	0.062	1	471	471	471	0	0	1	-360	360;
	110	111	0.023	0.099	0.046	180	200	200	0	0	1	-360	360;
	110	112	0	0.0185	0	500	1586	1586	1	0	1	-360	360;
	110	114	0	0.0768	0	150	382	382	1.0398	0	1	-360	360;
	110	134	0.0032	0.0256	0.0134	268	268	268	0	0	1	-360	360;
	110	141	0.021	0.0649	0.0288	171	171	171	0	0	1	-360	360;
	111	115	0.0527	0.2215	0.103	129	129	129	0	0	1	-360	360;
	112	120	0.0005	0.0044	0.072	601	601	601	0	0	1	-360	360;
	112	121	0	0.019	0	720	1544	1544	1.0499	0	1	-360	360;
	113	132	0.0459	0.2911	0	100	100	100	0	0	1	-360	360;
	113	134	0.0008	0.0072	0.0038	284	284	284	0	0	1	-360	360;
	115	117	0.0019	0.0154	0.033	270	270	270	0	0	1	-360	360;
	116	117	0.0048	0.0391	0.0214	271	271	271	0	0	1	-360	360;
	116	119	0	0.009	0	1000	3260	3260	1.0248	0	1	-360	360;
	116	147	0.0035	0.0286	0.0156	271	271	271	0	0	1	-360	360;
	117	147	0.0022	0.0175	0.01	268	268	268	0	0	1	-360	360;
	120	14	0.0003	0.0188	0	500	1561	1561	0.9751	0	1	-360	360;
	120	128	0.0004	0.0051	0.1	717	717	717	0	0	1	-360	360;
	120	129	0.0003	0.0038	0.0652	715	715	715	0	0	1	-360	360;
	122	123	0.0175	0.0835	0.0398	210	210	210	0	0	1	-360	360;
	123	125	0.0423	0.2441	0	119	119	119	1	0	1	-360	360;
	124	125	0.0113	0.1585	0	185	185	185	0	0	1	-360	360;
	124	126	0.0577	0.8256	0	36	36	36	0	0	1	-360	360;
	125	126	0.0201	0.5915	0	50	50	50	0	0	1	-360	360;
	126	127	0.0877	0.7049	0	42	42	42	0	0	1	-360	360;
	128	72	0.0004	0.018	0	500	1630	1630	1	0	1	-360	360;
	129	132	0.0004	0.0198	0	500	1482	1482	1	0	1	-360	360;
	133	134	0	0.041	0	160	716	716	1.0249	0	1	-360	360;
	133	135	0.0109	0.0259	0.0004	44	65	65	0	0	1	-360	360;
	133	136	0.039	0.099	0.0016	39	67	67	0	0	1	-360	360;
	133	137	0.0134	0.0504	0.001	60	81	81	0	0	1	-360	360;
	135	138	0.0466	0.1182	0.002	39	67	67	0	0	1	-360	360;
	136	139	0.026	0.065	0.001	39	66	66	0	0	1	-360	360;
	137	140	0.0041	0.0156	0.0004	60	81	81	0	0	1	-360	360;
	138	110	0	0.041	0	160	716	716	1	0	1	-360	360;
	138	139	0.026	0.065	0.001	39	66	66	0	0	1	-360	360;
	138	140	0.0251	0.0941	0.0018	60	80	80	0	0	1	-360	360;
	138	145	0.0923	0.2338	0.0038	39	67	67	0	0	1	-360	360;
	142	51	0	0.1728	0	83	170	170	1.07	0	1	-360	360;
	142	143	0.1582	0.3919	0.0068	44	66	66	0	0	1	-360	360;
	142	146	0.1618	0.3861	0.007	44	65	65	0	0	1	-360	360;
	143	144	0.0927	0.2322	0.002	44	66	66	0	0	1	-360	360;
	144	141	0	0.082	0	80	358	358	1.0249	0	1	-360	360;
	144	145	0.089	0.221	0.0032	39	66	66	0	0	1	-360	360;
	144	146	0.068	0.2906	0.0058	60	86	86	0	0	1	-360	360;
	148	116	0	0.041	0	160	716	716	1	0	1	-360	360;
	149	26	0	0.0386	0	300	760	760	1	0	1	-360	360;
	149	26	0	0.0386	0	300	760	760	1	0	1	-360	360;
	149	150	0.001	0.0085	0.002	276	276	276	0	0	1	-360	360;
	149	151	0.0039	0.0262	0.0138	247	247	247	0	0	1	-360	360;
	149	152	0.0253	0.1168	0.0544	207	207	207	0	0	1	-360	360;
	151	161	0.0021	0.0138	0.0074	244	244	244	0	0	1	-360	360;
	153	70	0	0.0916	0	93	321	321	1	0	1	-360	360;
	153	70	0	0.0916	0	93	321	321	1	0	1	-360	360;
	153	154	0.071	0.2841	0.0054	50	83	83	0	0	1	-360	360;
	153	155	0.043	0.1856	0.0038	66	86	86	0	0	1	-360	360;
	154	156	0.0155	0.0379	0.0008	50	66	66	0	0	1	-360	360;
	154	160	0.0102	0.0429	0.001	50	85	85	0	0	1	-360	360;
	155	156	0.0176	0.0822	0.0014	66	89	89	0	0	1	-360	360;
	156	157	0.053	0.1273	0.0022	33	65	65	0	0	1	-360	360;
	157	55	0	0.0827	0	150	355	355	1	0	1	-360	360;
	157	158	0.0489	0.1404	0.0028	50	71	71	0	0	1	-360	360;
	158	159	0.0339	0.0664	0.0012	50	59	59	0	0	1	-360	360;
	159	160	0.019	0.0811	0.012	50	86	86	0	0	1	-360	360;
	161	162	0.0022	0.0103	0.0054	208	208	208	0	0	1	-360	360;
];

%%-----  OPF Data  -----%%
%% generator cost data
%	1	startup	shutdown	n	x1	y1	...	xn	yn
%	2	startup	shutdown	n	c(n-1)	...	c0
mpc.gencost = [
	2	0	0	3	0	23.532556	0;
	2	0	0	3	0	30.409326	0;
	2	0	0	3	0	19.040386	0;
	2	0	0	3	0	19.686835	0;
	2	0	0	3	0	38.489977	0;
	2	0	0	3	0	6.111723	0;
	2	0	0	3	0	22.934184	0;
	2	0	0	3	0	29.747826	0;
	2	0	0	3	0	20.377006	0;
	2	0	0	3	0	7.373082	0;
	2	0	0	3	0	15.234482	0;
	2	0	0	3	0	11.354352	0;
];
